@<TRIPOS>MOLECULE
LDP.pdb
 22 22 0 0 0
SMALL
GASTEIGER

@<TRIPOS>ATOM
      1  C7        -9.1900    2.9910  -26.8180 C.3   708  LDP708     -0.0152
      2  C1       -10.3400    3.5770  -26.0270 C.ar  708  LDP708     -0.0425
      3  C4       -12.4980    4.6400  -24.6610 C.ar  708  LDP708      0.1582
      4  C2       -10.2010    3.9530  -24.6980 C.ar  708  LDP708     -0.0133
      5  C6       -11.5520    3.7360  -26.6700 C.ar  708  LDP708     -0.0549
      6  C5       -12.6300    4.2650  -25.9880 C.ar  708  LDP708     -0.0163
      7  C3       -11.2860    4.4830  -24.0140 C.ar  708  LDP708      0.1585
      8  O1       -11.1680    4.8700  -22.6660 O.3   708  LDP708     -0.5033
      9  O2       -13.6040    5.1790  -23.9760 O.3   708  LDP708     -0.5033
     10  C8        -8.2750    2.2140  -25.8960 C.3   708  LDP708     -0.0029
     11  N1        -7.3840    1.4100  -26.6670 N.3   708  LDP708     -0.3297
     12  H71       -8.6850    3.7130  -27.2430 H     708  LDP708      0.0325
     13  H72       -9.5410    2.3920  -27.5070 H     708  LDP708      0.0325
     14  H2        -9.3440    3.8400  -24.2440 H     708  LDP708      0.0658
     15  H6       -11.6470    3.4710  -27.6040 H     708  LDP708      0.0621
     16  H5       -13.4870    4.3760  -26.4430 H     708  LDP708      0.0655
     17  HO1      -10.9730    5.7360  -22.6230 H     708  LDP708      0.2923
     18  HO2      -14.2500    4.5700  -23.9310 H     708  LDP708      0.2923
     19  H81       -8.8130    1.6380  -25.3140 H     708  LDP708      0.0425
     20  H82       -7.7580    2.8400  -25.3480 H     708  LDP708      0.0425
     21 HN11       -7.3900    0.5530  -26.3440 H     708  LDP708      0.1182
     22 HN12       -6.5360    1.7530  -26.6090 H     708  LDP708      0.1182
@<TRIPOS>BOND
     1     1     2    1
     2     1    10    1
     3     1    12    1
     4     1    13    1
     5     2     4   ar
     6     2     5   ar
     7     3     6   ar
     8     3     7   ar
     9     3     9    1
    10     4     7   ar
    11     4    14    1
    12     5     6   ar
    13     5    15    1
    14     6    16    1
    15     7     8    1
    16     8    17    1
    17     9    18    1
    18    10    11    1
    19    10    19    1
    20    10    20    1
    21    11    21    1
    22    11    22    1
